HRIT_test1
1992 1 1 0 0 0
# Ocean diagnostics files
"ocean_hourly",            1, "hours",   1, "days", "time"

# High-frequency 2d
 "ocean_model", "SSH",          "ssh",              "ocean_hourly", "all", "none", "none",2
 "ocean_model", "SSU",          "ssu",              "ocean_hourly", "all", "none", "none",2
 "ocean_model", "SSV",          "ssv",              "ocean_hourly", "all", "none", "none",2
 "ocean_model", "SST",          "sst",              "ocean_hourly", "all", "none", "none",2
 "ocean_model", "SSS",          "sss",              "ocean_hourly", "all", "none", "none",2

