 &MOM_input_nml
         output_directory = './',
         input_filename = 'n'
         restart_input_dir = 'INPUT/',
         restart_output_dir = 'RESTART/',
         parameter_filename = 'MOM_input','MOM_layout','MOM_override'
/

 &SIS_input_nml
         output_directory = './',
         input_filename = 'n'
         restart_input_dir = 'INPUT/',
         restart_output_dir = 'RESTART/',
         parameter_filename = 'SIS_input','SIS_layout','SIS_override'
/

 &atmos_model_nml
           layout = 0, 0
/

 &coupler_nml
            months = 0,
            days   = 3,
            current_date = 1992,1,1,0,0,0,
            calendar = 'JULIAN',
            dt_cpld = 3600,
            dt_atmos = 3600,
            do_atmos = .false.,
            do_land = .false.,
            do_ice = .true.,
            do_ocean = .true.,
            do_flux = .true.,
            atmos_npes = 0,
            concurrent = .false.     
            use_lag_fluxes=.false.    
            check_stocks = 0
/

 &diag_manager_nml
            max_axes = 100,
            max_num_axis_sets = 100,
            max_input_fields = 699
            max_output_fields = 699
            mix_snapshot_average_fields=.false.
/

 &dummy_ice_model_nml
       ice_layout = 0,0
       ice_io_layout = 1,1
       ice_mask_table='MOM_mask_table'
/

 &dummy_ocean_model_nml
       ocean_layout = 0,0
       ocean_io_layout = 1,1
       ocean_mask_table='MOM_mask_table'
/

 &flux_exchange_nml
            debug_stocks = .FALSE.
            divert_stocks_report = .TRUE.            
            do_area_weighted_flux = .FALSE.          
/

 &fms_io_nml
            fms_netcdf_restart=.true.
            threading_read='multi'
            max_files_r = 200
            max_files_w = 200
/

 &fms_nml
            clock_grain='ROUTINE'
            clock_flags='NONE'
            domains_stack_size = 5000000
            stack_size =0
/


 &ice_albedo_nml
            t_range = 10.
/

 &ice_model_nml

/


 &icebergs_nml
	verbose=.false.,	
        verbose_hrs=24,
	traj_sample_hrs=24,
	debug=.false.,
	really_debug=.false.,
	use_slow_find=.true.,
	add_weight_to_ocean=.true.,
	passive_mode=.false.,
	generate_test_icebergs=.false.,
	speed_limit=0.,
	use_roundoff_fix=.true.,
	make_calving_reproduce=.true.
/
&land_model_nml
/


 &monin_obukhov_nml
	neutral = .true.
/

 &ocean_albedo_nml
            ocean_albedo_option = 2
/

 &ocean_rough_nml
            rough_scheme = 'beljaars'
            roughness_min = 1.e-4
/


 &sat_vapor_pres_nml
            construct_table_wrt_liq = .true.
            construct_table_wrt_liq_and_ice = .true.
/


 &surface_flux_nml
	   gust_min = 1.e-10
/

 &topo_rough_nml
         use_topo_rough    = .true.
         max_topo_rough    = 100.0 
         topo_rough_factor = 0.01
/

 &topography_nml
       topog_file = 'INPUT/navy_topography.data.nc'
/


 &xgrid_nml
            make_exchange_reproduce = .true.
            interp_method = 'second_order'
/

