! Blank file in which we can put "overrides" for parameters
Z_INIT_HOMOGENIZE = True
