! This file was written by the model and records the non-default parameters used at run-time.
GRID_CONFIG = "mosaic"          !    Method for defining horizontal grid
                                !  = file|cartesian|spherical|mercator
                                !  file - read grid from file "GRID_FILE"
                                !  cartesian - a Cartesian grid
                                !  spherical - a spherical grid
                                !  mercator  - a Mercator grid
GRID_FILE = "ocean_hgrid.nc"
                                !    Name of file to read horizontal grid data
INPUTDIR = "INPUT"
                                !    INPUTDIR is a directory in which NetCDF
                                !  input files might be found.

CGRID_ICE_DYNAMICS = True       !   If true, use a C-grid discretization of the
                                ! sea-ice dynamics; if false use a B-grid
                                ! discretization.

SIS_THICKNESS_ADVECTION_SCHEME = "PCM" ! default = "UPWIND_2D"
                                ! The horizontal transport scheme for thickness:
                                !   UPWIND_2D - Non-directionally split upwind
                                !   PCM    - Directionally split peicewise constant
                                !   PLM    - Piecewise Linear Method
                                !   PPM:H3 - Piecewise Parabolic Method (Huyhn 3rd order)

SIS_CONTINUITY_SCHEME = "PCM"   ! default = "UPWIND_2D"

SIS_TRACER_ADVECTION_SCHEME = "PPM:H3" ! default = "UPWIND_2D"

!  Specify the numerical domain.
NIGLOBAL = 4500                  !    NIGLOBAL and NJGLOBAL are the number of thickness
NJGLOBAL = 3297                  !  grid points in the zonal and meridional
                                !  directions of the physical domain.

REENTRANT_X = True              !    If defined, the domain is zonally reentrant.
REENTRANT_Y = False             !    If defined, the domain is meridionally
                                !  reentrant.
TRIPOLAR_N = True               !    Use tripolar connectivity at the northern
                                !  edge of the domain.  With TRIPOLAR_N, NIGLOBAL
                                !  must be even.

DEBUG = False                   !    If true, write out verbose debugging data.
DEBUG_TRUNCATIONS = False       !    If true, calculate all diagnostics that are
                                !  useful for debugging truncations.
SEND_LOG_TO_STDOUT = False      !    If true write out log information to stdout.
ICE_STATS_INTERVAL = 0.25       !    The interval in units of TIMEUNIT between
                                ! writes of the globally summed ice statistics
                                ! and conservation checks.

!  Specify the time integration scheme for the ice dynamics.
DT_ICE_DYNAMICS = 120.0        ! The time step used for the slow ice dynamics, 
                                ! including stepping the continuity equation and
                                ! interactions between the ice mass field and 
                                ! velocities, in s.
DT_RHEOLOGY = 30.0             ! The sub-cycling time step, in s, for iterating
                                ! the rheology and ice momentum equations. If
                                ! DT_RHEOLOGY is negative, the time step is set
                                ! via NSTEPS_DYN.
ICE_TDAMP_ELASTIC = 3600.0      !   The damping timescale associated with the
                                ! elastic terms in the sea-ice dynamics.

!  Specify the ice properties.
ICE_STRENGTH_PSTAR = 2.75e4     !    ICE_STRENGTH_PSTAR is a constant in the
                                !  expression for the ice strength, P* in
                                !  Hunke & Dukowics '97, in Pa.
RHO_OCEAN = 1030.0              !    RHO_OCEAN is used in the Boussinesq
                                !  approximation to calculations of pressure and
                                !  pressure gradients, in units of kg m-3.
RHO_ICE = 905.0                 !    RHO_ICE is the nominal density of sea ice
                                !  used in SIS, in units of kg m-3.
RHO_SNOW = 330.0                !    RHO_SNOW is the nominal density of snow
                                !  used in SIS, in units of kg m-3.
C_P_ICE = 2100.0                !    C_P_ICE is the heat capacity of fresh ice
                                !  in J kg-1 K-1, approximated as a constant.
C_P = 3925.0                    !    C_P is the heat capacity of sea water in
                                !  J kg-1 K-1, approximated as a constant.
SNOW_ALBEDO = 0.88              !    The albedo of dry snow atop sea ice, ND.
ICE_ALBEDO  = 0.68              !    The albedo of dry bare sea ice, ND.
ICE_BULK_SALINITY = 5.0         !    The fixed bulk salinity of sea ice, in g/kg.


!  Specify the properties of the surface forcing.

ICE_OCEAN_STRESS_STAGGER = "C"  ! default = "B"
                                ! A case-insensitive character string to indicate the
                                ! staggering of the stress field on the ocean that is
                                ! returned to the coupler.  Valid values include
                                ! 'A', 'B', or 'C'.
